6

Pd      2.875230340818730     -0.000000000956593      8.225369939340119
Pd     -0.000000004572596      2.959967471699330      8.225369935348340
Se      0.636573695813081      0.709554111238692      7.482011977439110
Se      3.511804034125000      2.250413363149600      8.968727903608119
Se      5.113886969141680      5.210380836461780      8.968727899464170
Se      2.238656635543750      3.669521585113150      7.482011978669880
