37

C 5.475518806258505 8.097414056199744 8.133229119431027 
C 6.681268954127649 1.6875731491253276 8.133229119431027 
C 1.7486827041805955 1.6875731491253276 8.133229119431027 
C 0.5246682798997052 3.8241867848167996 8.133229119431027 
C 2.9785034779421955 0.9754736020597812 8.133229087181897 
C 4.214975829154123 1.6875731491253276 8.133229119431027 
C 1.754489053661305 3.1120872377512536 8.133229087181897 
C 2.9909614048732327 3.8241867848167996 8.133229119431027 
C 0.5304746293804145 5.2487008734427265 8.133229087181897 
C 1.7669469805923421 5.960800420508273 8.133229119431027 
C 0.5429325563114518 8.097414056199744 8.133229119431027 
C 5.444796602915722 0.9754736020597812 8.133229087181897 
C 4.220782178634831 3.1120872377512536 8.133229087181897 
C 4.239046455046577 7.385314509134199 8.133229087181897 
C 5.457254529846758 3.8241867848167996 8.133229119431027 
C 2.9967677543539417 5.2487008734427265 8.133229087181897 
C 4.233240105565868 5.960800420508273 8.133229119431027 
C 1.7727533300730511 7.385314509134199 8.133229087181897 
C 3.0092256812849785 8.097414056199744 8.133229119431027 
C 7.911089727889248 0.9754736020597812 8.133229087181897 
C 6.687075303608359 3.1120872377512536 8.133229087181897 
C 7.923547654820286 3.8241867848167996 8.133229119431027 
C 5.463060879327467 5.2487008734427265 8.133229087181897 
C 6.699533230539394 5.960800420508273 8.133229119431027 
C 0.5122103529686683 0.9754736020597812 8.133229087181897 
Pd 5.123003121848786 3.0734699013282825 10.84350348432996 
Pd 2.2340551930432744 6.034037788807473 10.843503488321739 
Pd -0.6286453832085029 3.0734699013282825 10.84350348432996 
Se 5.743204108362913 6.743720233033528 10.100145526420729 
Se 7.35910044741782 3.7831523467730914 10.100145527651499 
Se 5.769911990285699 0.8226495245292792 10.100145526420729 
Se 2.8606587252239777 8.28485816925269 11.586861452589739 
Se -0.008444396694376577 6.743720233033528 10.100145526420729 
Se 1.6074519423605331 3.7831523467730914 10.100145527651499 
Se 4.476555059566085 5.3242902824298755 11.58686144844579 
Se 2.887366607146765 2.3637874607484433 11.586861452589739 
Se 0.018263485228410703 0.8226495245292792 10.100145526420729 
